---- qbsp / TyrUtils v0.15 ----
Input file: drencromone.map
Output file: drencromone.bsp

---- LoadMapFile ----
*** WARNING 06: No info_player_deathmatch entities in level
          215 faces
           36 brushes
           10 entities
            7 unique texnames
           17 texinfo

Opened WAD: D:/Games/GOG/Quake/id1/Q.wad
Processing hull 0...
---- Brush_LoadEntity ----
           35 brushes
---- CSGFaces ----
          209 brushfaces
          166 csgfaces
          137 mergedfaces
---- SolidBSP ----
          201 split nodes
           74 solid leafs
          128 empty leafs
            0 water leafs
          296 leaffaces
          276 nodefaces
---- Portalize ----
          128 vis leafs
          128 vis clusters
          312 vis portals
---- FillOutside ----
          108 outleafs
---- MergeAll ----
           64 mergefaces
---- SolidBSP ----
           47 split nodes
           35 solid leafs
           13 empty leafs
            0 water leafs
           85 leaffaces
           68 nodefaces
---- Portalize ----
           13 vis leafs
           13 vis clusters
           13 vis portals
---- Tjunc ----
           95 world edges
          263 edge points
           45 edges added by tjunctions
            0 faces added by tjunctions
---- MakeFaceEdges ----
---- GrowRegions ----
Processing hull 1...
*** WARNING 19: No entities in empty space -- no filling performed (hull 1)
Processing hull 2...
*** WARNING 19: No entities in empty space -- no filling performed (hull 2)
*** WARNING 16: Texture __TB_empty not found
---- WriteBSPFile ----
           86 planes             1720
          100 vertexes           1200
           53 nodes              1272
           17 texinfo             680
           74 faces              1480
          417 clipnodes          3336
           20 leafs               560
           91 marksurfaces        182
          340 surfedges          1360
          171 edges               684
            7 textures          35600
              lightdata             0
              visdata               0
              entdata             751

0.073 seconds elapsed
Peak memory usage: 1068827 (1.0M)
