---- qbsp / TyrUtils v0.15 ----
Input file: quoth1a.map
Output file: quoth1a.bsp

---- LoadMapFile ----
*** WARNING 06: No info_player_deathmatch entities in level
         3889 faces
          663 brushes
          122 entities
           15 unique texnames
           47 texinfo

Opened WAD: D:/Games/GOG/Quake/id1/Q.wad
Processing hull 0...
---- Brush_LoadEntity ----
          587 brushes
---- CSGFaces ----
         3440 brushfaces
         2674 csgfaces
         2253 mergedfaces
---- SolidBSP ----
         3354 split nodes
         1425 solid leafs
         1923 empty leafs
            7 water leafs
         5525 leaffaces
         5224 nodefaces
---- Portalize ----
         1930 vis leafs
         1930 vis clusters
         5889 vis portals
---- FillOutside ----
          929 outleafs
---- MergeAll ----
         1912 mergefaces
---- SolidBSP ----
         1112 split nodes
          603 solid leafs
          505 empty leafs
            5 water leafs
         2746 leaffaces
         2267 nodefaces
---- Portalize ----
          510 vis leafs
          510 vis clusters
         1540 vis portals
---- Tjunc ----
         2445 world edges
         8297 edge points
         1712 edges added by tjunctions
            0 faces added by tjunctions
---- MakeFaceEdges ----
---- GrowRegions ----
Processing hull 1...
Processing hull 2...
---- WriteBSPFile ----
         1307 planes            26140
         3669 vertexes          44028
         1448 nodes             34752
           47 texinfo            1880
         2781 faces             55620
         3325 clipnodes         26600
          811 leafs             22708
         3294 marksurfaces       6588
        12728 surfedges         50912
         6497 edges             25988
           22 textures         219196
              lightdata             0
              visdata               0
              entdata            9306

0.649 seconds elapsed
Peak memory usage: 16155033 (15.4M)
