---- qbsp / TyrUtils v0.15 ----
Input file: quoth1.map
Output file: quoth1.bsp

---- LoadMapFile ----
*** WARNING 06: No info_player_deathmatch entities in level
         3746 faces
          639 brushes
          109 entities
           15 unique texnames
           42 texinfo

Opened WAD: D:/Games/GOG/Quake/id1/Q.wad
Processing hull 0...
---- Brush_LoadEntity ----
          580 brushes
---- CSGFaces ----
         3398 brushfaces
         2636 csgfaces
         2212 mergedfaces
---- SolidBSP ----
         3342 split nodes
         1395 solid leafs
         1942 empty leafs
            6 water leafs
         5558 leaffaces
         5183 nodefaces
---- Portalize ----
         1948 vis leafs
         1948 vis clusters
         5973 vis portals
---- FillOutside ----
          913 outleafs
---- MergeAll ----
         1884 mergefaces
---- SolidBSP ----
         1145 split nodes
          612 solid leafs
          530 empty leafs
            4 water leafs
         2860 leaffaces
         2239 nodefaces
---- Portalize ----
          534 vis leafs
          534 vis clusters
         1665 vis portals
---- Tjunc ----
         2454 world edges
         8218 edge points
         1667 edges added by tjunctions
            0 faces added by tjunctions
---- MakeFaceEdges ----
---- GrowRegions ----
Processing hull 1...
Processing hull 2...
---- WriteBSPFile ----
         1199 planes            23980
         3508 vertexes          42096
         1391 nodes             33384
           42 texinfo            1680
         2657 faces             53140
         2926 clipnodes         23408
          756 leafs             21168
         3306 marksurfaces       6612
        12186 surfedges         48744
         6226 edges             24904
           22 textures         219196
              lightdata             0
              visdata               0
              entdata            8018

0.630 seconds elapsed
Peak memory usage: 15909708 (15.2M)
