---- qbsp / TyrUtils v0.15 ----
Input file: quoth1b.map
Output file: quoth1b.bsp

---- LoadMapFile ----
*** WARNING 06: No info_player_deathmatch entities in level
         6239 faces
         1056 brushes
          231 entities
           18 unique texnames
           59 texinfo

Opened WAD: D:/Games/GOG/Quake/id1/Q.wad
Processing hull 0...
---- Brush_LoadEntity ----
          911 brushes
---- CSGFaces ----
         5382 brushfaces
         4453 csgfaces
         3917 mergedfaces
---- SolidBSP ----
         6093 split nodes
         2616 solid leafs
         3446 empty leafs
           32 water leafs
        10254 leaffaces
         9702 nodefaces
---- Portalize ----
         3478 vis leafs
         3478 vis clusters
        10600 vis portals
---- FillOutside ----
         1734 outleafs
---- MergeAll ----
         2872 mergefaces
---- SolidBSP ----
         1772 split nodes
          980 solid leafs
          784 empty leafs
            9 water leafs
         4233 leaffaces
         3565 nodefaces
---- Portalize ----
          793 vis leafs
          793 vis clusters
         2280 vis portals
---- Tjunc ----
         3706 world edges
        12903 edge points
         2753 edges added by tjunctions
            0 faces added by tjunctions
---- MakeFaceEdges ----
---- GrowRegions ----
Processing hull 1...
Processing hull 2...
---- WriteBSPFile ----
         1604 planes            32080
         5886 vertexes          70632
         2437 nodes             58488
           59 texinfo            2360
         4445 faces             88900
         5518 clipnodes         44144
         1382 leafs             38696
         5160 marksurfaces      10320
        20395 surfedges         81580
        10424 edges             41696
           25 textures         236992
              lightdata             0
              visdata               0
              entdata           17576

1.131 seconds elapsed
Peak memory usage: 30852246 (29.4M)
