---- qbsp / TyrUtils v0.15 ----
Input file: quoth1a.map
Output file: quoth1a.bsp

---- LoadMapFile ----
*** WARNING 06: No info_player_deathmatch entities in level
         3788 faces
          646 brushes
          113 entities
           15 unique texnames
           43 texinfo

Opened WAD: D:/Games/GOG/Quake/id1/Q.wad
Processing hull 0...
---- Brush_LoadEntity ----
          573 brushes
---- CSGFaces ----
         3356 brushfaces
         2563 csgfaces
         2160 mergedfaces
---- SolidBSP ----
         3248 split nodes
         1369 solid leafs
         1873 empty leafs
            7 water leafs
         5347 leaffaces
         5065 nodefaces
---- Portalize ----
         1880 vis leafs
         1880 vis clusters
         5730 vis portals
---- FillOutside ----
          916 outleafs
---- MergeAll ----
         1825 mergefaces
---- SolidBSP ----
         1082 split nodes
          589 solid leafs
          489 empty leafs
            5 water leafs
         2646 leaffaces
         2183 nodefaces
---- Portalize ----
          494 vis leafs
          494 vis clusters
         1499 vis portals
---- Tjunc ----
         2369 world edges
         7962 edge points
         1596 edges added by tjunctions
            0 faces added by tjunctions
---- MakeFaceEdges ----
---- GrowRegions ----
Processing hull 1...
Processing hull 2...
---- WriteBSPFile ----
         1284 planes            25680
         3526 vertexes          42312
         1406 nodes             33744
           43 texinfo            1720
         2685 faces             53700
         3269 clipnodes         26152
          783 leafs             21924
         3182 marksurfaces       6364
        12226 surfedges         48904
         6246 edges             24984
           22 textures         219196
              lightdata             0
              visdata               0
              entdata            8630

0.644 seconds elapsed
Peak memory usage: 15730185 (15.0M)
