---- qbsp / TyrUtils v0.15 ----
Input file: quoth1a.map
Output file: quoth1a.bsp

---- LoadMapFile ----
*** WARNING 06: No info_player_deathmatch entities in level
         4027 faces
          686 brushes
          129 entities
           15 unique texnames
           47 texinfo

Opened WAD: D:/Games/GOG/Quake/id1/Q.wad
Processing hull 0...
---- Brush_LoadEntity ----
          568 brushes
---- CSGFaces ----
         3326 brushfaces
         2556 csgfaces
         2139 mergedfaces
---- SolidBSP ----
         3053 split nodes
         1308 solid leafs
         1739 empty leafs
            7 water leafs
         5158 leaffaces
         4870 nodefaces
---- Portalize ----
         1746 vis leafs
         1746 vis clusters
         5371 vis portals
---- FillOutside ----
          805 outleafs
---- MergeAll ----
         1786 mergefaces
---- SolidBSP ----
         1042 split nodes
          578 solid leafs
          460 empty leafs
            5 water leafs
         2554 leaffaces
         2143 nodefaces
---- Portalize ----
          465 vis leafs
          465 vis clusters
         1422 vis portals
---- Tjunc ----
         2326 world edges
         7806 edge points
         1588 edges added by tjunctions
            0 faces added by tjunctions
---- MakeFaceEdges ----
---- GrowRegions ----
Processing hull 1...
Processing hull 2...
---- WriteBSPFile ----
         1327 planes            26540
         3795 vertexes          45540
         1588 nodes             38112
           47 texinfo            1880
         2885 faces             57700
         3733 clipnodes         29864
          942 leafs             26376
         3337 marksurfaces       6674
        13022 surfedges         52088
         6720 edges             26880
           22 textures         219196
              lightdata             0
              visdata               0
              entdata            9562

0.679 seconds elapsed
Peak memory usage: 16075231 (15.3M)
