---- qbsp / TyrUtils v0.15 ----
Input file: quoth1a.map
Output file: quoth1a.bsp

---- LoadMapFile ----
*** WARNING 06: No info_player_deathmatch entities in level
         4971 faces
          844 brushes
          177 entities
           15 unique texnames
           48 texinfo

Opened WAD: D:/Games/GOG/Quake/id1/Q.wad
Processing hull 0...
---- Brush_LoadEntity ----
          713 brushes
---- CSGFaces ----
         4192 brushfaces
         3325 csgfaces
         2876 mergedfaces
---- SolidBSP ----
         4082 split nodes
         1731 solid leafs
         2343 empty leafs
            9 water leafs
         6824 leaffaces
         6435 nodefaces
---- Portalize ----
         2352 vis leafs
         2352 vis clusters
         7281 vis portals
---- FillOutside ----
         1170 outleafs
---- MergeAll ----
         2217 mergefaces
---- SolidBSP ----
         1319 split nodes
          741 solid leafs
          573 empty leafs
            6 water leafs
         3151 leaffaces
         2673 nodefaces
---- Portalize ----
          579 vis leafs
          579 vis clusters
         1684 vis portals
---- Tjunc ----
         2898 world edges
         9787 edge points
         2064 edges added by tjunctions
            0 faces added by tjunctions
---- MakeFaceEdges ----
---- GrowRegions ----
Processing hull 1...
Processing hull 2...
---- WriteBSPFile ----
         1454 planes            29080
         4649 vertexes          55788
         1937 nodes             46488
           48 texinfo            1920
         3497 faces             69940
         4588 clipnodes         36704
         1124 leafs             31472
         4021 marksurfaces       8042
        15942 surfedges         63768
         8196 edges             32784
           22 textures         219196
              lightdata             0
              visdata               0
              entdata           13625

0.850 seconds elapsed
Peak memory usage: 20498684 (19.5M)
