---- qbsp / TyrUtils v0.15 ----
Input file: quoth-test.map
Output file: quoth-test.bsp

---- LoadMapFile ----
*** WARNING 06: No info_player_deathmatch entities in level
         6239 faces
         1056 brushes
          232 entities
           18 unique texnames
           59 texinfo

Opened WAD: D:/Games/GOG/Quake/id1/Q.wad
Processing hull 0...
---- Brush_LoadEntity ----
          911 brushes
---- CSGFaces ----
         5382 brushfaces
         4449 csgfaces
         3909 mergedfaces
---- SolidBSP ----
         6093 split nodes
         2616 solid leafs
         3446 empty leafs
           32 water leafs
        10252 leaffaces
         9704 nodefaces
---- Portalize ----
         3478 vis leafs
         3478 vis clusters
        10600 vis portals
---- FillOutside ----
         1734 outleafs
---- MergeAll ----
         2870 mergefaces
---- SolidBSP ----
         1759 split nodes
          976 solid leafs
          775 empty leafs
            9 water leafs
         4244 leaffaces
         3566 nodefaces
---- Portalize ----
          784 vis leafs
          784 vis clusters
         2257 vis portals
---- Tjunc ----
         3706 world edges
        12910 edge points
         2748 edges added by tjunctions
            0 faces added by tjunctions
---- MakeFaceEdges ----
---- GrowRegions ----
Processing hull 1...
Processing hull 2...
---- WriteBSPFile ----
         1604 planes            32080
         5890 vertexes          70680
         2424 nodes             58176
           59 texinfo            2360
         4446 faces             88920
         5520 clipnodes         44160
         1373 leafs             38444
         5171 marksurfaces      10342
        20403 surfedges         81612
        10428 edges             41712
           25 textures         236992
              lightdata             0
              visdata               0
              entdata           17749

1.106 seconds elapsed
Peak memory usage: 30847708 (29.4M)
