---- qbsp / TyrUtils v0.15 ----
Input file: quoth1b.map
Output file: quoth1b.bsp

---- LoadMapFile ----
*** WARNING 06: No info_player_deathmatch entities in level
         5943 faces
         1007 brushes
          225 entities
           17 unique texnames
           56 texinfo

Opened WAD: D:/Games/GOG/Quake/id1/Q.wad
Processing hull 0...
---- Brush_LoadEntity ----
          864 brushes
---- CSGFaces ----
         5098 brushfaces
         4147 csgfaces
         3641 mergedfaces
---- SolidBSP ----
         5657 split nodes
         2408 solid leafs
         3240 empty leafs
           10 water leafs
         9404 leaffaces
         8960 nodefaces
---- Portalize ----
         3250 vis leafs
         3250 vis clusters
         9870 vis portals
---- FillOutside ----
         1672 outleafs
---- MergeAll ----
         2672 mergefaces
---- SolidBSP ----
         1580 split nodes
          867 solid leafs
          708 empty leafs
            6 water leafs
         3856 leaffaces
         3233 nodefaces
---- Portalize ----
          714 vis leafs
          714 vis clusters
         2107 vis portals
---- Tjunc ----
         3431 world edges
        11799 edge points
         2511 edges added by tjunctions
            0 faces added by tjunctions
---- MakeFaceEdges ----
---- GrowRegions ----
Processing hull 1...
Processing hull 2...
---- WriteBSPFile ----
         1568 planes            31360
         5471 vertexes          65652
         2233 nodes             53592
           56 texinfo            2240
         4101 faces             82020
         5339 clipnodes         42712
         1291 leafs             36148
         4771 marksurfaces       9542
        18781 surfedges         75124
         9617 edges             38468
           24 textures         231060
              lightdata             0
              visdata               0
              entdata           17074

1.012 seconds elapsed
Peak memory usage: 29293221 (27.9M)
