---- qbsp / TyrUtils v0.15 ----
Input file: quoth1c.map
Output file: quoth1c.bsp

---- LoadMapFile ----
*** WARNING 06: No info_player_deathmatch entities in level
         6436 faces
         1089 brushes
          233 entities
           19 unique texnames
           63 texinfo

Opened WAD: D:/Games/GOG/Quake/id1/Q.wad
Processing hull 0...
---- Brush_LoadEntity ----
          937 brushes
---- CSGFaces ----
         5538 brushfaces
         4602 csgfaces
         4011 mergedfaces
---- SolidBSP ----
         6396 split nodes
         2771 solid leafs
         3595 empty leafs
           31 water leafs
        10644 leaffaces
        10111 nodefaces
---- Portalize ----
         3626 vis leafs
         3626 vis clusters
        11087 vis portals
---- FillOutside ----
         1804 outleafs
---- MergeAll ----
         2948 mergefaces
---- SolidBSP ----
         1804 split nodes
          991 solid leafs
          805 empty leafs
            9 water leafs
         4424 leaffaces
         3693 nodefaces
---- Portalize ----
          814 vis leafs
          814 vis clusters
         2389 vis portals
---- Tjunc ----
         3806 world edges
        13370 edge points
         2868 edges added by tjunctions
            0 faces added by tjunctions
---- MakeFaceEdges ----
---- GrowRegions ----
Processing hull 1...
Processing hull 2...
---- WriteBSPFile ----
         1642 planes            32840
         6133 vertexes          73596
         2499 nodes             59976
           63 texinfo            2520
         4617 faces             92340
         5623 clipnodes         44984
         1425 leafs             39900
         5399 marksurfaces      10798
        21204 surfedges         84816
        10833 edges             43332
           26 textures         238396
              lightdata             0
              visdata               0
              entdata           17585

1.160 seconds elapsed
Peak memory usage: 31781871 (30.3M)
