---- qbsp / TyrUtils v0.15 ----
Input file: quoth1c.map
Output file: quoth1c.bsp

---- LoadMapFile ----
*** WARNING 06: No info_player_deathmatch entities in level
         7228 faces
         1219 brushes
          240 entities
           19 unique texnames
           63 texinfo

Opened WAD: D:/Games/GOG/Quake/id1/Q.wad
Processing hull 0...
---- Brush_LoadEntity ----
         1060 brushes
---- CSGFaces ----
         6288 brushfaces
         5190 csgfaces
         4522 mergedfaces
---- SolidBSP ----
         7635 split nodes
         3242 solid leafs
         4229 empty leafs
          165 water leafs
        12419 leaffaces
        11677 nodefaces
---- Portalize ----
         4394 vis leafs
         4394 vis clusters
        13819 vis portals
---- FillOutside ----
         2283 outleafs
---- MergeAll ----
         3178 mergefaces
---- SolidBSP ----
         1962 split nodes
         1096 solid leafs
          836 empty leafs
           31 water leafs
         4760 leaffaces
         3965 nodefaces
---- Portalize ----
          867 vis leafs
          867 vis clusters
         2416 vis portals
---- Tjunc ----
         4124 world edges
        14215 edge points
         3083 edges added by tjunctions
            0 faces added by tjunctions
---- MakeFaceEdges ----
---- GrowRegions ----
Processing hull 1...
Processing hull 2...
---- WriteBSPFile ----
         1783 planes            35660
         6460 vertexes          77520
         2689 nodes             64536
           63 texinfo            2520
         4931 faces             98620
         5525 clipnodes         44200
         1505 leafs             42140
         5777 marksurfaces      11554
        22631 surfedges         90524
        11551 edges             46204
           26 textures         238396
              lightdata             0
              visdata               0
              entdata           17998

1.340 seconds elapsed
Peak memory usage: 33881673 (32.3M)
