---- qbsp / TyrUtils v0.15 ----
Input file: quoth1.map
Output file: quoth1.bsp

---- LoadMapFile ----
*** WARNING 06: No info_player_deathmatch entities in level
         3068 faces
          526 brushes
           79 entities
           15 unique texnames
           40 texinfo

Opened WAD: D:/Games/GOG/Quake/id1/Q.wad
Processing hull 0...
---- Brush_LoadEntity ----
          490 brushes
---- CSGFaces ----
         2854 brushfaces
         2178 csgfaces
         1785 mergedfaces
---- SolidBSP ----
         2702 split nodes
         1126 solid leafs
         1571 empty leafs
            6 water leafs
         4708 leaffaces
         4373 nodefaces
---- Portalize ----
         1577 vis leafs
         1577 vis clusters
         4803 vis portals
---- FillOutside ----
*** WARNING 10: Reached occupant at (-376 1920 128), no filling performed.
Leak file written to quoth1.pts
---- MakeFaceEdges ----
---- GrowRegions ----
Processing hull 1...
Processing hull 2...
---- WriteBSPFile ----
          981 planes            19620
         5582 vertexes          66984
         2841 nodes             68184
           40 texinfo            1600
         4655 faces             93100
         2192 clipnodes         17536
         1703 leafs             47684
         5007 marksurfaces      10014
        18391 surfedges         73564
        11513 edges             46052
           22 textures         219196
              lightdata             0
              visdata               0
              entdata            5519

0.553 seconds elapsed
Peak memory usage: 17878328 (17.1M)
